Input file: data/gshx1500.20d.gz
Output file: out/crxgz/gshx1500.20d.gz/dummy/gsht1500.20d.gz
Renames: 
Using crx2rnx: /usr/bin/crx2rnx
Using rnx2crx: /usr/bin/rnx2crx
Using gfzrnx: /usr/bin/gfzrnx
Input file gzipped hatanaka RINEX version 3.04
Output file gzipped hatanaka RINEX version 2
Running gunzip /tmp/dummy/gshx1500.20d.gz  /tmp/dummy/gshx1500.20d
Running: /usr/bin/crx2rnx -f /tmp/dummy/gshx1500.20d
Running: /usr/bin/gfzrnx -f -vosc 2 -vo 2 -finp /tmp/dummy/gshx1500.20o.tmp -fout /tmp/dummy/gshx1500.20o

DATE/TIME           | C | EPOCH / FILE            | SITE | T | MESSAGE
--------------------+---+-------------------------+------+---+-----------------------------------------------------------...
2020-01-02 03:04:05 | W | 0000-00-00 00:00:00.000 | GSHX | O | mismatch between header MARKER NAME (GSHT) and file/station name (GSHX) / using >GSHT<
2020-01-02 03:04:05 | W | 0000-00-00 00:00:00.000 | GSHX | O | header SYS / PHASE SHIFT: E -> L1C not found
2020-01-02 03:04:05 | W | 0000-00-00 00:00:00.000 | GSHX | O | header SYS / PHASE SHIFT: E -> L5Q not found
2020-01-02 03:04:05 | W | 0000-00-00 00:00:00.000 | GSHX | O | header SYS / PHASE SHIFT: G -> L1C not found
2020-01-02 03:04:05 | W | 0000-00-00 00:00:00.000 | GSHX | O | header SYS / PHASE SHIFT: G -> L2W not found
2020-01-02 03:04:05 | W | 0000-00-00 00:00:00.000 | GSHX | O | header SYS / PHASE SHIFT: G -> L5Q not found
2020-01-02 03:04:05 | W | 0000-00-00 00:00:00.000 | GSHX | O | header SYS / PHASE SHIFT: R -> L1C not found
2020-01-02 03:04:05 | W | 2020-05-29 23:59:30.000 | GSHX | O | split of internal header (2020-05-29 23:59:30.0000000) into 4 parts

Running: /usr/bin/rnx2crx -f /tmp/dummy/gshx1500.20o
Running gzip /tmp/dummy/gshx1500.20d /tmp/dummy/gshx1500.20d.gz
Copying /tmp/dummy/gshx1500.20d.gz to out/crxgz/gshx1500.20d.gz/dummy/gsht1500.20d.gz
