Input file: data/gshx1500.20o
Output file: out/crx/gshx1500.20o/dummy/gsht1500.20d
Renames: 
Using crx2rnx: /usr/bin/crx2rnx
Using rnx2crx: /usr/bin/rnx2crx
Using gfzrnx: /usr/bin/gfzrnx
Input file RINEX version 2.11
Output file hatanaka RINEX version 2
Running: /usr/bin/rnx2crx -f /tmp/dummy/gshx1500.20o
Copying /tmp/dummy/gshx1500.20d to out/crx/gshx1500.20o/dummy/gsht1500.20d
